SAVE_INITIAL_CONDS = False
DEBUG=False
DEBUG_BT=False
